dss/export/capas-pablo/1-cooperativa-prefijos-urbano-prefijos/Load.dss
New Load.c_carga_idseta_113 phases=3 bus1=c_x_113.1.2.3.0 kv=0.38 kw=23.655877446505947 pf=0.9 status=variable model=1 CVRwatts=0.8 CVRvars=3.0 class=1 daily=334 conn=wye
New Load.c_carga_idseta_114 phases=3 bus1=c_x_114.1.2.3.0 kv=0.38 kw=50.93634692877814 pf=0.9 status=variable model=1 CVRwatts=0.8 CVRvars=3.0 class=1 daily=334 conn=wye
New Load.c_carga_idseta_17 phases=3 bus1=c_x_17.1.2.3.0 kv=0.38 kw=224.2118693511162 pf=0.9 status=variable model=1 CVRwatts=0.8 CVRvars=3.0 class=1 daily=334 conn=wye
New Load.c_carga_idseta_18 phases=3 bus1=c_x_18.1.2.3.0 kv=0.38 kw=122.27175072626552 pf=0.9 status=variable model=1 CVRwatts=0.8 CVRvars=3.0 class=1 daily=334 conn=wye
New Load.c_carga_idseta_200 phases=3 bus1=c_x_200.1.2.3.0 kv=0.38 kw=48.468191810849376 pf=0.9 status=variable model=1 CVRwatts=0.8 CVRvars=3.0 class=1 daily=334 conn=wye
New Load.c_carga_idseta_378 phases=3 bus1=c_x_378.1.2.3.0 kv=0.38 kw=116.14426960154006 pf=0.9 status=variable model=1 CVRwatts=0.8 CVRvars=3.0 class=1 daily=334 conn=wye
New Load.c_carga_idseta_49 phases=3 bus1=c_x_49.1.2.3.0 kv=0.38 kw=166.5310025181304 pf=0.9 status=variable model=1 CVRwatts=0.8 CVRvars=3.0 class=1 daily=334 conn=wye
New Load.c_carga_idseta_50 phases=3 bus1=c_x_50.1.2.3.0 kv=0.38 kw=166.47175044990198 pf=0.9 status=variable model=1 CVRwatts=0.8 CVRvars=3.0 class=1 daily=334 conn=wye
New Load.c_carga_idseta_51 phases=3 bus1=c_x_51.1.2.3.0 kv=0.38 kw=191.19906874395912 pf=0.9 status=variable model=1 CVRwatts=0.8 CVRvars=3.0 class=1 daily=334 conn=wye
New Load.c_carga_idseta_52 phases=3 bus1=c_x_52.1.2.3.0 kv=0.38 kw=122.53532027114368 pf=0.9 status=variable model=1 CVRwatts=0.8 CVRvars=3.0 class=1 daily=334 conn=wye
New Load.c_carga_idseta_53 phases=3 bus1=c_x_53.1.2.3.0 kv=0.38 kw=127.75358862477778 pf=0.9 status=variable model=1 CVRwatts=0.8 CVRvars=3.0 class=1 daily=334 conn=wye
New Load.c_carga_idseta_54 phases=3 bus1=c_x_54.1.2.3.0 kv=0.38 kw=183.09297717535767 pf=0.9 status=variable model=1 CVRwatts=0.8 CVRvars=3.0 class=1 daily=334 conn=wye
New Load.c_carga_idseta_55 phases=3 bus1=c_x_55.1.2.3.0 kv=0.38 kw=46.83160882288502 pf=0.9 status=variable model=1 CVRwatts=0.8 CVRvars=3.0 class=1 daily=334 conn=wye
New Load.c_carga_idseta_56 phases=3 bus1=c_x_56.1.2.3.0 kv=0.38 kw=203.9530559983793 pf=0.9 status=variable model=1 CVRwatts=0.8 CVRvars=3.0 class=1 daily=334 conn=wye
New Load.c_carga_idseta_58 phases=3 bus1=c_x_58.1.2.3.0 kv=0.38 kw=153.36069797328872 pf=0.9 status=variable model=1 CVRwatts=0.8 CVRvars=3.0 class=1 daily=334 conn=wye
New Load.c_carga_idseta_6005 phases=3 bus1=c_x_6005.1.2.3.0 kv=0.38 kw=92.68494556757116 pf=0.9 status=variable model=1 CVRwatts=0.8 CVRvars=3.0 class=1 daily=334 conn=wye
New Load.c_carga_idseta_61 phases=3 bus1=c_x_61.1.2.3.0 kv=0.38 kw=207.78474422847776 pf=0.9 status=variable model=1 CVRwatts=0.8 CVRvars=3.0 class=1 daily=334 conn=wye
New Load.c_carga_idseta_62 phases=3 bus1=c_x_62.1.2.3.0 kv=0.38 kw=120.35692819859956 pf=0.9 status=variable model=1 CVRwatts=0.8 CVRvars=3.0 class=1 daily=334 conn=wye
New Load.c_carga_idseta_63 phases=3 bus1=c_x_63.1.2.3.0 kv=0.38 kw=85.99518274710562 pf=0.9 status=variable model=1 CVRwatts=0.8 CVRvars=3.0 class=1 daily=334 conn=wye
New Load.c_carga_idseta_65 phases=3 bus1=c_x_65.1.2.3.0 kv=0.38 kw=94.0105573560746 pf=0.9 status=variable model=1 CVRwatts=0.8 CVRvars=3.0 class=1 daily=334 conn=wye
New Load.c_carga_idseta_68 phases=3 bus1=c_x_68.1.2.3.0 kv=0.38 kw=74.03239448926381 pf=0.9 status=variable model=1 CVRwatts=0.8 CVRvars=3.0 class=1 daily=334 conn=wye
New Load.c_carga_idseta_73 phases=3 bus1=c_x_73.1.2.3.0 kv=0.38 kw=123.30355398334665 pf=0.9 status=variable model=1 CVRwatts=0.8 CVRvars=3.0 class=1 daily=334 conn=wye
New Load.c_carga_idseta_77 phases=3 bus1=c_x_77.1.2.3.0 kv=0.38 kw=122.8899949788599 pf=0.9 status=variable model=1 CVRwatts=0.8 CVRvars=3.0 class=1 daily=334 conn=wye
New Load.c_carga_idseta_78 phases=3 bus1=c_x_78.1.2.3.0 kv=0.38 kw=196.69144942426647 pf=0.9 status=variable model=1 CVRwatts=0.8 CVRvars=3.0 class=1 daily=334 conn=wye
New Load.c_carga_idseta_83 phases=3 bus1=c_x_83.1.2.3.0 kv=0.38 kw=146.53036472888817 pf=0.9 status=variable model=1 CVRwatts=0.8 CVRvars=3.0 class=1 daily=334 conn=wye
New Load.c_carga_idseta_86 phases=3 bus1=c_x_86.1.2.3.0 kv=0.38 kw=126.05162404428556 pf=0.9 status=variable model=1 CVRwatts=0.8 CVRvars=3.0 class=1 daily=334 conn=wye
New Load.c_carga_idseta_87 phases=3 bus1=c_x_87.1.2.3.0 kv=0.38 kw=76.68239216141083 pf=0.9 status=variable model=1 CVRwatts=0.8 CVRvars=3.0 class=1 daily=334 conn=wye
New Load.c_carga_idseta_88 phases=3 bus1=c_x_88.1.2.3.0 kv=0.38 kw=22.72214657821668 pf=0.9 status=variable model=1 CVRwatts=0.8 CVRvars=3.0 class=1 daily=334 conn=wye
New Load.c_carga_idseta_90 phases=3 bus1=c_x_90.1.2.3.0 kv=0.38 kw=87.74822669676031 pf=0.9 status=variable model=1 CVRwatts=0.8 CVRvars=3.0 class=1 daily=334 conn=wye
New Load.c_carga_idseta_97 phases=3 bus1=c_x_97.1.2.3.0 kv=0.38 kw=82.91611837399417 pf=0.9 status=variable model=1 CVRwatts=0.8 CVRvars=3.0 class=1 daily=334 conn=wye
New Load.u_carga_idseta_10 phases=3 bus1=u_x_10.1.2.3.0 kv=0.38 kw=159.93389316287266 pf=0.9 status=variable model=1 CVRwatts=0.8 CVRvars=3.0 class=1 daily=334 conn=wye
New Load.u_carga_idseta_12 phases=3 bus1=u_x_12.1.2.3.0 kv=0.38 kw=217.1546362164412 pf=0.9 status=variable model=1 CVRwatts=0.8 CVRvars=3.0 class=1 daily=334 conn=wye
New Load.u_carga_idseta_128 phases=3 bus1=u_x_128.1.2.3.0 kv=0.38 kw=37.315652981576434 pf=0.9 status=variable model=1 CVRwatts=0.8 CVRvars=3.0 class=1 daily=334 conn=wye
New Load.u_carga_idseta_129 phases=3 bus1=u_x_129.1.2.3.0 kv=0.38 kw=38.34650093608925 pf=0.9 status=variable model=1 CVRwatts=0.8 CVRvars=3.0 class=1 daily=334 conn=wye
New Load.u_carga_idseta_13 phases=3 bus1=u_x_13.1.2.3.0 kv=0.38 kw=123.03167167014595 pf=0.9 status=variable model=1 CVRwatts=0.8 CVRvars=3.0 class=1 daily=334 conn=wye
New Load.u_carga_idseta_130 phases=3 bus1=u_x_130.1.2.3.0 kv=0.38 kw=34.50585314310512 pf=0.9 status=variable model=1 CVRwatts=0.8 CVRvars=3.0 class=1 daily=334 conn=wye
New Load.u_carga_idseta_131 phases=3 bus1=u_x_131.1.2.3.0 kv=0.38 kw=22.604266810124443 pf=0.9 status=variable model=1 CVRwatts=0.8 CVRvars=3.0 class=1 daily=334 conn=wye
New Load.u_carga_idseta_132 phases=3 bus1=u_x_132.1.2.3.0 kv=0.38 kw=44.105148568023765 pf=0.9 status=variable model=1 CVRwatts=0.8 CVRvars=3.0 class=1 daily=334 conn=wye
New Load.u_carga_idseta_14 phases=3 bus1=u_x_14.1.2.3.0 kv=0.38 kw=327.98160125210995 pf=0.9 status=variable model=1 CVRwatts=0.8 CVRvars=3.0 class=1 daily=334 conn=wye
New Load.u_carga_idseta_15 phases=3 bus1=u_x_15.1.2.3.0 kv=0.38 kw=146.20768313794474 pf=0.9 status=variable model=1 CVRwatts=0.8 CVRvars=3.0 class=1 daily=334 conn=wye
New Load.u_carga_idseta_2943 phases=3 bus1=u_x_2943.1.2.3.0 kv=0.38 kw=145.64501657521188 pf=0.9 status=variable model=1 CVRwatts=0.8 CVRvars=3.0 class=1 daily=334 conn=wye
New Load.u_carga_idseta_3 phases=3 bus1=u_x_3.1.2.3.0 kv=0.38 kw=241.5266607000316 pf=0.9 status=variable model=1 CVRwatts=0.8 CVRvars=3.0 class=1 daily=334 conn=wye
New Load.u_carga_idseta_3009 phases=3 bus1=u_x_3009.1.2.3.0 kv=0.38 kw=70.40365366194472 pf=0.9 status=variable model=1 CVRwatts=0.8 CVRvars=3.0 class=1 daily=334 conn=wye
New Load.u_carga_idseta_335 phases=3 bus1=u_x_335.1.2.3.0 kv=0.38 kw=9.625178106563116 pf=0.9 status=variable model=1 CVRwatts=0.8 CVRvars=3.0 class=1 daily=335 conn=wye
New Load.u_carga_idseta_47 phases=3 bus1=u_x_47.1.2.3.0 kv=0.38 kw=56.31762244744307 pf=0.9 status=variable model=1 CVRwatts=0.8 CVRvars=3.0 class=1 daily=334 conn=wye
New Load.u_carga_idseta_57 phases=3 bus1=u_x_57.1.2.3.0 kv=0.38 kw=243.6380058172775 pf=0.9 status=variable model=1 CVRwatts=0.8 CVRvars=3.0 class=1 daily=334 conn=wye
New Load.u_carga_idseta_59 phases=3 bus1=u_x_59.1.2.3.0 kv=0.38 kw=212.0150645088005 pf=0.9 status=variable model=1 CVRwatts=0.8 CVRvars=3.0 class=1 daily=334 conn=wye
New Load.u_carga_idseta_6 phases=3 bus1=u_x_6.1.2.3.0 kv=0.38 kw=184.79519291840447 pf=0.9 status=variable model=1 CVRwatts=0.8 CVRvars=3.0 class=1 daily=334 conn=wye
New Load.u_carga_idseta_60 phases=3 bus1=u_x_60.1.2.3.0 kv=0.38 kw=162.05408600795283 pf=0.9 status=variable model=1 CVRwatts=0.8 CVRvars=3.0 class=1 daily=334 conn=wye
New Load.u_carga_idseta_69 phases=3 bus1=u_x_69.1.2.3.0 kv=0.38 kw=191.28420621252985 pf=0.9 status=variable model=1 CVRwatts=0.8 CVRvars=3.0 class=1 daily=334 conn=wye
New Load.u_carga_idseta_7 phases=3 bus1=u_x_7.1.2.3.0 kv=0.38 kw=198.6722628188478 pf=0.9 status=variable model=1 CVRwatts=0.8 CVRvars=3.0 class=1 daily=334 conn=wye
New Load.u_carga_idseta_70 phases=3 bus1=u_x_70.1.2.3.0 kv=0.38 kw=108.83322946191574 pf=0.9 status=variable model=1 CVRwatts=0.8 CVRvars=3.0 class=1 daily=334 conn=wye
New Load.u_carga_idseta_71 phases=3 bus1=u_x_71.1.2.3.0 kv=0.38 kw=164.72267488700095 pf=0.9 status=variable model=1 CVRwatts=0.8 CVRvars=3.0 class=1 daily=334 conn=wye
New Load.u_carga_idseta_72 phases=3 bus1=u_x_72.1.2.3.0 kv=0.38 kw=104.04234793141204 pf=0.9 status=variable model=1 CVRwatts=0.8 CVRvars=3.0 class=1 daily=334 conn=wye
New Load.u_carga_idseta_74 phases=3 bus1=u_x_74.1.2.3.0 kv=0.38 kw=90.21828285209578 pf=0.9 status=variable model=1 CVRwatts=0.8 CVRvars=3.0 class=1 daily=334 conn=wye
New Load.u_carga_idseta_75 phases=3 bus1=u_x_75.1.2.3.0 kv=0.38 kw=73.99065299936649 pf=0.9 status=variable model=1 CVRwatts=0.8 CVRvars=3.0 class=1 daily=334 conn=wye
New Load.u_carga_idseta_76 phases=3 bus1=u_x_76.1.2.3.0 kv=0.38 kw=159.33045366081134 pf=0.9 status=variable model=1 CVRwatts=0.8 CVRvars=3.0 class=1 daily=334 conn=wye
New Load.u_carga_idseta_79 phases=3 bus1=u_x_79.1.2.3.0 kv=0.38 kw=93.82261068873213 pf=0.9 status=variable model=1 CVRwatts=0.8 CVRvars=3.0 class=1 daily=334 conn=wye
New Load.u_carga_idseta_8 phases=3 bus1=u_x_8.1.2.3.0 kv=0.38 kw=86.18176185857769 pf=0.9 status=variable model=1 CVRwatts=0.8 CVRvars=3.0 class=1 daily=334 conn=wye
New Load.u_carga_idseta_80 phases=3 bus1=u_x_80.1.2.3.0 kv=0.38 kw=129.77211129464024 pf=0.9 status=variable model=1 CVRwatts=0.8 CVRvars=3.0 class=1 daily=334 conn=wye
New Load.u_carga_idseta_81 phases=3 bus1=u_x_81.1.2.3.0 kv=0.38 kw=162.34129059258257 pf=0.9 status=variable model=1 CVRwatts=0.8 CVRvars=3.0 class=1 daily=334 conn=wye
New Load.u_carga_idseta_82 phases=3 bus1=u_x_82.1.2.3.0 kv=0.38 kw=34.66107572312859 pf=0.9 status=variable model=1 CVRwatts=0.8 CVRvars=3.0 class=1 daily=334 conn=wye
New Load.u_carga_idseta_84 phases=3 bus1=u_x_84.1.2.3.0 kv=0.38 kw=56.49294608655548 pf=0.9 status=variable model=1 CVRwatts=0.8 CVRvars=3.0 class=1 daily=334 conn=wye
New Load.u_carga_idseta_840 phases=3 bus1=u_x_840.1.2.3.0 kv=0.38 kw=45.67896363963287 pf=0.9 status=variable model=1 CVRwatts=0.8 CVRvars=3.0 class=1 daily=334 conn=wye
New Load.u_carga_idseta_89 phases=3 bus1=u_x_89.1.2.3.0 kv=0.38 kw=118.82865437888007 pf=0.9 status=variable model=1 CVRwatts=0.8 CVRvars=3.0 class=1 daily=334 conn=wye
New Load.u_carga_idseta_9 phases=3 bus1=u_x_9.1.2.3.0 kv=0.38 kw=168.31069354790588 pf=0.9 status=variable model=1 CVRwatts=0.8 CVRvars=3.0 class=1 daily=334 conn=wye
New Load.u_carga_idseta_91 phases=3 bus1=u_x_91.1.2.3.0 kv=0.38 kw=61.96671319140199 pf=0.9 status=variable model=1 CVRwatts=0.8 CVRvars=3.0 class=1 daily=334 conn=wye
New Load.u_carga_idseta_92 phases=3 bus1=u_x_92.1.2.3.0 kv=0.38 kw=5.510462750242123 pf=0.9 status=variable model=1 CVRwatts=0.8 CVRvars=3.0 class=1 daily=334 conn=wye
New Load.u_carga_idseta_93 phases=3 bus1=u_x_93.1.2.3.0 kv=0.38 kw=3.3291104961692146 pf=0.9 status=variable model=1 CVRwatts=0.8 CVRvars=3.0 class=1 daily=334 conn=wye
New Load.u_carga_idseta_96 phases=3 bus1=u_x_96.1.2.3.0 kv=0.38 kw=157.91155537218074 pf=0.9 status=variable model=1 CVRwatts=0.8 CVRvars=3.0 class=1 daily=334 conn=wye
